data_00001
_audit_creation_method   'DISCUS'

_data_chemical_name_common 'BaTiO3 (P4mm)'

_cell_length_a             16.0460
_cell_length_b             16.0460
_cell_length_c             12.1710
_cell_angle_alpha     90.0000
_cell_angle_beta      90.0000
_cell_angle_gamma     90.0000

_symmetry_space_group_name_H-M   'P1              '

loop_
_atom_site_label
_atom_site_fract_x
_atom_site_fract_y
_atom_site_fract_z
_atom_site_u_iso_or_equiv
TI        0.127500    0.127500    0.173333     0.002533
O         0.127500    0.127500    0.330000     0.002533
O         0.127500    0.002500    0.166000     0.002533
O         0.002500    0.127500    0.166000     0.002533
TI        0.377500    0.127500    0.173333     0.002533
O         0.377500    0.127500    0.330000     0.002533
O         0.377500    0.002500    0.166000     0.002533
O         0.252500    0.127500    0.166000     0.002533
O         0.502500    0.127500    0.166000     0.002533
TI        0.127500    0.377500    0.173333     0.002533
O         0.127500    0.377500    0.330000     0.002533
O         0.127500    0.252500    0.166000     0.002533
O         0.002500    0.377500    0.166000     0.002533
BA        0.252500    0.252500    0.003333     0.002533
TI        0.377500    0.377500    0.173333     0.002533
O         0.377500    0.377500    0.330000     0.002533
O         0.377500    0.252500    0.166000     0.002533
O         0.252500    0.377500    0.166000     0.002533
O         0.502500    0.377500    0.166000     0.002533
O         0.127500    0.502500    0.166000     0.002533
O         0.377500    0.502500    0.166000     0.002533
TI        0.127500    0.127500    0.506667     0.002533
O         0.127500    0.127500    0.663333     0.002533
O         0.127500    0.002500    0.499333     0.002533
O         0.002500    0.127500    0.499333     0.002533
BA        0.252500    0.002500    0.336667     0.002533
TI        0.377500    0.127500    0.506667     0.002533
O         0.377500    0.127500    0.663333     0.002533
O         0.377500    0.002500    0.499333     0.002533
O         0.252500    0.127500    0.499333     0.002533
O         0.502500    0.127500    0.499333     0.002533
BA        0.002500    0.252500    0.336667     0.002533
TI        0.127500    0.377500    0.506667     0.002533
O         0.127500    0.377500    0.663333     0.002533
O         0.127500    0.252500    0.499333     0.002533
O         0.002500    0.377500    0.499333     0.002533
BA        0.252500    0.252500    0.336667     0.002533
TI        0.377500    0.377500    0.506667     0.002533
O         0.377500    0.377500    0.663333     0.002533
O         0.377500    0.252500    0.499333     0.002533
O         0.252500    0.377500    0.499333     0.002533
BA        0.502500    0.252500    0.336667     0.002533
O         0.502500    0.377500    0.499333     0.002533
O         0.127500    0.502500    0.499333     0.002533
BA        0.252500    0.502500    0.336667     0.002533
O         0.377500    0.502500    0.499333     0.002533
BA        0.252500    0.252500    0.670000     0.002533
