data_00001
_audit_creation_method   'DISCUS'

_data_chemical_name_common 'ZnSe (wurtzite)'

_cell_length_a             35.9730
_cell_length_b             35.9730
_cell_length_c             39.0060
_cell_angle_alpha     90.0000
_cell_angle_beta      90.0000
_cell_angle_gamma    120.0000

_symmetry_space_group_name_H-M   'P1              '

loop_
_atom_site_label
_atom_site_fract_x
_atom_site_fract_y
_atom_site_fract_z
_atom_site_u_iso_or_equiv
ZN        0.260370    0.334444    0.001667     0.000785
ZN        0.371481    0.334444    0.001667     0.000785
ZN        0.482592    0.334444    0.001667     0.000785
ZN        0.371481    0.445556    0.001667     0.000785
ZN        0.482592    0.445556    0.001667     0.000785
ZN        0.482592    0.556667    0.001667     0.000785
ZN        0.149259    0.001111    0.168333     0.000785
ZN        0.260370    0.001111    0.168333     0.000785
ZN        0.038148    0.112222    0.168333     0.000785
ZN        0.112222    0.149259    0.085000     0.000785
ZN        0.149259    0.112222    0.168333     0.000785
SE        0.149259    0.112222    0.107150     0.000785
ZN        0.223333    0.149259    0.085000     0.000785
ZN        0.260370    0.112222    0.168333     0.000785
SE        0.260370    0.112222    0.107150     0.000785
ZN        0.334444    0.149259    0.085000     0.000785
ZN        0.371481    0.112222    0.168333     0.000785
SE        0.371481    0.112222    0.107150     0.000785
ZN        0.445555    0.149259    0.085000     0.000785
ZN        0.482592    0.112222    0.168333     0.000785
ZN        0.038148    0.223333    0.168333     0.000785
ZN        0.112222    0.260370    0.085000     0.000785
ZN        0.149259    0.223333    0.168333     0.000785
SE        0.149259    0.223333    0.107150     0.000785
ZN        0.223333    0.260370    0.085000     0.000785
ZN        0.260370    0.223333    0.168333     0.000785
SE        0.223333    0.260370    0.023817     0.000785
SE        0.260370    0.223333    0.107150     0.000785
ZN        0.334444    0.260370    0.085000     0.000785
ZN        0.371481    0.223333    0.168333     0.000785
SE        0.334444    0.260370    0.023817     0.000785
SE        0.371481    0.223333    0.107150     0.000785
ZN        0.445555    0.260370    0.085000     0.000785
ZN        0.482592    0.223333    0.168333     0.000785
SE        0.445555    0.260370    0.023817     0.000785
SE        0.482592    0.223333    0.107150     0.000785
ZN        0.556667    0.260370    0.085000     0.000785
ZN        0.593704    0.223333    0.168333     0.000785
ZN        0.038148    0.334444    0.168333     0.000785
ZN        0.112222    0.371481    0.085000     0.000785
ZN        0.149259    0.334444    0.168333     0.000785
SE        0.149259    0.334444    0.107150     0.000785
ZN        0.223333    0.371481    0.085000     0.000785
ZN        0.260370    0.334444    0.168333     0.000785
SE        0.223333    0.371481    0.023817     0.000785
SE        0.260370    0.334444    0.107150     0.000785
ZN        0.334444    0.371481    0.085000     0.000785
ZN        0.371481    0.334444    0.168333     0.000785
SE        0.334444    0.371481    0.023817     0.000785
SE        0.371481    0.334444    0.107150     0.000785
ZN        0.445555    0.371481    0.085000     0.000785
ZN        0.482592    0.334444    0.168333     0.000785
SE        0.445555    0.371481    0.023817     0.000785
SE        0.482592    0.334444    0.107150     0.000785
ZN        0.556667    0.371481    0.085000     0.000785
ZN        0.593704    0.334444    0.168333     0.000785
SE        0.556667    0.371481    0.023817     0.000785
SE        0.593704    0.334444    0.107150     0.000785
ZN        0.667778    0.371481    0.085000     0.000785
ZN        0.704815    0.334444    0.168333     0.000785
ZN        0.149259    0.445556    0.168333     0.000785
SE        0.149259    0.445556    0.107150     0.000785
ZN        0.223333    0.482593    0.085000     0.000785
ZN        0.260370    0.445556    0.168333     0.000785
SE        0.260370    0.445556    0.107150     0.000785
ZN        0.334444    0.482593    0.085000     0.000785
ZN        0.371481    0.445556    0.168333     0.000785
SE        0.334444    0.482593    0.023817     0.000785
SE        0.371481    0.445556    0.107150     0.000785
ZN        0.445555    0.482593    0.085000     0.000785
ZN        0.482592    0.445556    0.168333     0.000785
SE        0.445555    0.482593    0.023817     0.000785
SE        0.482592    0.445556    0.107150     0.000785
ZN        0.556667    0.482593    0.085000     0.000785
ZN        0.593704    0.445556    0.168333     0.000785
SE        0.556667    0.482593    0.023817     0.000785
SE        0.593704    0.445556    0.107150     0.000785
ZN        0.667778    0.482593    0.085000     0.000785
ZN        0.704815    0.445556    0.168333     0.000785
SE        0.704815    0.445556    0.107150     0.000785
ZN        0.149259    0.556667    0.168333     0.000785
ZN        0.260370    0.556667    0.168333     0.000785
SE        0.260370    0.556667    0.107150     0.000785
ZN        0.334444    0.593704    0.085000     0.000785
ZN        0.371481    0.556667    0.168333     0.000785
SE        0.371481    0.556667    0.107150     0.000785
ZN        0.445555    0.593704    0.085000     0.000785
ZN        0.482592    0.556667    0.168333     0.000785
SE        0.445555    0.593704    0.023817     0.000785
SE        0.482592    0.556667    0.107150     0.000785
ZN        0.556667    0.593704    0.085000     0.000785
ZN        0.593704    0.556667    0.168333     0.000785
SE        0.556667    0.593704    0.023817     0.000785
SE        0.593704    0.556667    0.107150     0.000785
ZN        0.667778    0.593704    0.085000     0.000785
ZN        0.704815    0.556667    0.168333     0.000785
SE        0.704815    0.556667    0.107150     0.000785
ZN        0.815926    0.556667    0.168333     0.000785
ZN        0.260370    0.667778    0.168333     0.000785
ZN        0.371481    0.667778    0.168333     0.000785
SE        0.371481    0.667778    0.107150     0.000785
ZN        0.445555    0.704815    0.085000     0.000785
ZN        0.482592    0.667778    0.168333     0.000785
SE        0.482592    0.667778    0.107150     0.000785
ZN        0.556667    0.704815    0.085000     0.000785
ZN        0.593704    0.667778    0.168333     0.000785
SE        0.593704    0.667778    0.107150     0.000785
ZN        0.667778    0.704815    0.085000     0.000785
ZN        0.704815    0.667778    0.168333     0.000785
SE        0.704815    0.667778    0.107150     0.000785
ZN        0.815926    0.667778    0.168333     0.000785
ZN        0.482592    0.778889    0.168333     0.000785
ZN        0.593704    0.778889    0.168333     0.000785
ZN        0.704815    0.778889    0.168333     0.000785
ZN        0.001111    0.038148    0.251667     0.000785
ZN        0.038148    0.001111    0.335000     0.000785
SE        0.038148    0.001111    0.273817     0.000785
ZN        0.112222    0.038148    0.251667     0.000785
ZN        0.149259    0.001111    0.335000     0.000785
SE        0.112222    0.038148    0.190483     0.000785
SE        0.149259    0.001111    0.273817     0.000785
ZN        0.223333    0.038148    0.251667     0.000785
ZN        0.260370    0.001111    0.335000     0.000785
SE        0.223333    0.038148    0.190483     0.000785
SE        0.260370    0.001111    0.273817     0.000785
ZN        0.334444    0.038148    0.251667     0.000785
ZN        0.371481    0.001111    0.335000     0.000785
SE        0.334444    0.038148    0.190483     0.000785
SE        0.371481    0.001111    0.273817     0.000785
ZN        0.445555    0.038148    0.251667     0.000785
ZN        0.001111    0.149259    0.251667     0.000785
ZN        0.038148    0.112222    0.335000     0.000785
SE        0.001111    0.149259    0.190483     0.000785
SE        0.038148    0.112222    0.273817     0.000785
ZN        0.112222    0.149259    0.251667     0.000785
ZN        0.149259    0.112222    0.335000     0.000785
SE        0.112222    0.149259    0.190483     0.000785
SE        0.149259    0.112222    0.273817     0.000785
ZN        0.223333    0.149259    0.251667     0.000785
ZN        0.260370    0.112222    0.335000     0.000785
SE        0.223333    0.149259    0.190483     0.000785
SE        0.260370    0.112222    0.273817     0.000785
ZN        0.334444    0.149259    0.251667     0.000785
ZN        0.371481    0.112222    0.335000     0.000785
SE        0.334444    0.149259    0.190483     0.000785
SE        0.371481    0.112222    0.273817     0.000785
ZN        0.445555    0.149259    0.251667     0.000785
ZN        0.482592    0.112222    0.335000     0.000785
SE        0.445555    0.149259    0.190483     0.000785
SE        0.482592    0.112222    0.273817     0.000785
ZN        0.556667    0.149259    0.251667     0.000785
SE        0.556667    0.149259    0.190483     0.000785
ZN        0.001111    0.260370    0.251667     0.000785
ZN        0.038148    0.223333    0.335000     0.000785
SE        0.001111    0.260370    0.190483     0.000785
SE        0.038148    0.223333    0.273817     0.000785
ZN        0.112222    0.260370    0.251667     0.000785
ZN        0.149259    0.223333    0.335000     0.000785
SE        0.112222    0.260370    0.190483     0.000785
SE        0.149259    0.223333    0.273817     0.000785
ZN        0.223333    0.260370    0.251667     0.000785
ZN        0.260370    0.223333    0.335000     0.000785
SE        0.223333    0.260370    0.190483     0.000785
SE        0.260370    0.223333    0.273817     0.000785
ZN        0.334444    0.260370    0.251667     0.000785
ZN        0.371481    0.223333    0.335000     0.000785
SE        0.334444    0.260370    0.190483     0.000785
SE        0.371481    0.223333    0.273817     0.000785
ZN        0.445555    0.260370    0.251667     0.000785
ZN        0.482592    0.223333    0.335000     0.000785
SE        0.445555    0.260370    0.190483     0.000785
SE        0.482592    0.223333    0.273817     0.000785
ZN        0.556667    0.260370    0.251667     0.000785
ZN        0.593704    0.223333    0.335000     0.000785
SE        0.556667    0.260370    0.190483     0.000785
SE        0.593704    0.223333    0.273817     0.000785
ZN        0.667778    0.260370    0.251667     0.000785
SE        0.667778    0.260370    0.190483     0.000785
ZN        0.001111    0.371481    0.251667     0.000785
ZN        0.038148    0.334444    0.335000     0.000785
SE        0.038148    0.334444    0.273817     0.000785
ZN        0.112222    0.371481    0.251667     0.000785
ZN        0.149259    0.334444    0.335000     0.000785
SE        0.112222    0.371481    0.190483     0.000785
SE        0.149259    0.334444    0.273817     0.000785
ZN        0.223333    0.371481    0.251667     0.000785
ZN        0.260370    0.334444    0.335000     0.000785
SE        0.223333    0.371481    0.190483     0.000785
SE        0.260370    0.334444    0.273817     0.000785
ZN        0.334444    0.371481    0.251667     0.000785
ZN        0.371481    0.334444    0.335000     0.000785
SE        0.334444    0.371481    0.190483     0.000785
SE        0.371481    0.334444    0.273817     0.000785
ZN        0.445555    0.371481    0.251667     0.000785
ZN        0.482592    0.334444    0.335000     0.000785
SE        0.445555    0.371481    0.190483     0.000785
SE        0.482592    0.334444    0.273817     0.000785
ZN        0.556667    0.371481    0.251667     0.000785
ZN        0.593704    0.334444    0.335000     0.000785
SE        0.556667    0.371481    0.190483     0.000785
SE        0.593704    0.334444    0.273817     0.000785
ZN        0.667778    0.371481    0.251667     0.000785
ZN        0.704815    0.334444    0.335000     0.000785
SE        0.667778    0.371481    0.190483     0.000785
SE        0.704815    0.334444    0.273817     0.000785
ZN        0.778889    0.371481    0.251667     0.000785
ZN        0.038148    0.445556    0.335000     0.000785
SE        0.038148    0.445556    0.273817     0.000785
ZN        0.112222    0.482593    0.251667     0.000785
ZN        0.149259    0.445556    0.335000     0.000785
SE        0.112222    0.482593    0.190483     0.000785
SE        0.149259    0.445556    0.273817     0.000785
ZN        0.223333    0.482593    0.251667     0.000785
ZN        0.260370    0.445556    0.335000     0.000785
SE        0.223333    0.482593    0.190483     0.000785
SE        0.260370    0.445556    0.273817     0.000785
ZN        0.334444    0.482593    0.251667     0.000785
ZN        0.371481    0.445556    0.335000     0.000785
SE        0.334444    0.482593    0.190483     0.000785
SE        0.371481    0.445556    0.273817     0.000785
ZN        0.445555    0.482593    0.251667     0.000785
ZN        0.482592    0.445556    0.335000     0.000785
SE        0.445555    0.482593    0.190483     0.000785
SE        0.482592    0.445556    0.273817     0.000785
ZN        0.556667    0.482593    0.251667     0.000785
ZN        0.593704    0.445556    0.335000     0.000785
SE        0.556667    0.482593    0.190483     0.000785
SE        0.593704    0.445556    0.273817     0.000785
ZN        0.667778    0.482593    0.251667     0.000785
ZN        0.704815    0.445556    0.335000     0.000785
SE        0.667778    0.482593    0.190483     0.000785
SE        0.704815    0.445556    0.273817     0.000785
ZN        0.778889    0.482593    0.251667     0.000785
ZN        0.815926    0.445556    0.335000     0.000785
SE        0.778889    0.482593    0.190483     0.000785
SE        0.815926    0.445556    0.273817     0.000785
ZN        0.149259    0.556667    0.335000     0.000785
SE        0.149259    0.556667    0.273817     0.000785
ZN        0.223333    0.593704    0.251667     0.000785
ZN        0.260370    0.556667    0.335000     0.000785
SE        0.223333    0.593704    0.190483     0.000785
SE        0.260370    0.556667    0.273817     0.000785
ZN        0.334444    0.593704    0.251667     0.000785
ZN        0.371481    0.556667    0.335000     0.000785
SE        0.334444    0.593704    0.190483     0.000785
SE        0.371481    0.556667    0.273817     0.000785
ZN        0.445555    0.593704    0.251667     0.000785
ZN        0.482592    0.556667    0.335000     0.000785
SE        0.445555    0.593704    0.190483     0.000785
SE        0.482592    0.556667    0.273817     0.000785
ZN        0.556667    0.593704    0.251667     0.000785
ZN        0.593704    0.556667    0.335000     0.000785
SE        0.556667    0.593704    0.190483     0.000785
SE        0.593704    0.556667    0.273817     0.000785
ZN        0.667778    0.593704    0.251667     0.000785
ZN        0.704815    0.556667    0.335000     0.000785
SE        0.667778    0.593704    0.190483     0.000785
SE        0.704815    0.556667    0.273817     0.000785
ZN        0.778889    0.593704    0.251667     0.000785
ZN        0.815926    0.556667    0.335000     0.000785
SE        0.778889    0.593704    0.190483     0.000785
SE        0.815926    0.556667    0.273817     0.000785
ZN        0.260370    0.667778    0.335000     0.000785
SE        0.260370    0.667778    0.273817     0.000785
ZN        0.334444    0.704815    0.251667     0.000785
ZN        0.371481    0.667778    0.335000     0.000785
SE        0.334444    0.704815    0.190483     0.000785
SE        0.371481    0.667778    0.273817     0.000785
ZN        0.445555    0.704815    0.251667     0.000785
ZN        0.482592    0.667778    0.335000     0.000785
SE        0.445555    0.704815    0.190483     0.000785
SE        0.482592    0.667778    0.273817     0.000785
ZN        0.556667    0.704815    0.251667     0.000785
ZN        0.593704    0.667778    0.335000     0.000785
SE        0.556667    0.704815    0.190483     0.000785
SE        0.593704    0.667778    0.273817     0.000785
ZN        0.667778    0.704815    0.251667     0.000785
ZN        0.704815    0.667778    0.335000     0.000785
SE        0.667778    0.704815    0.190483     0.000785
SE        0.704815    0.667778    0.273817     0.000785
ZN        0.778889    0.704815    0.251667     0.000785
ZN        0.815926    0.667778    0.335000     0.000785
SE        0.778889    0.704815    0.190483     0.000785
SE        0.815926    0.667778    0.273817     0.000785
ZN        0.371481    0.778889    0.335000     0.000785
SE        0.371481    0.778889    0.273817     0.000785
ZN        0.445555    0.815926    0.251667     0.000785
ZN        0.482592    0.778889    0.335000     0.000785
SE        0.482592    0.778889    0.273817     0.000785
ZN        0.556667    0.815926    0.251667     0.000785
ZN        0.593704    0.778889    0.335000     0.000785
SE        0.556667    0.815926    0.190483     0.000785
SE        0.593704    0.778889    0.273817     0.000785
ZN        0.667778    0.815926    0.251667     0.000785
ZN        0.704815    0.778889    0.335000     0.000785
SE        0.667778    0.815926    0.190483     0.000785
SE        0.704815    0.778889    0.273817     0.000785
ZN        0.778889    0.815926    0.251667     0.000785
ZN        0.815926    0.778889    0.335000     0.000785
SE        0.815926    0.778889    0.273817     0.000785
ZN        0.001111    0.038148    0.418333     0.000785
SE        0.001111    0.038148    0.357150     0.000785
SE        0.038148    0.001111    0.440483     0.000785
ZN        0.112222    0.038148    0.418333     0.000785
ZN        0.149259    0.001111    0.501667     0.000785
SE        0.112222    0.038148    0.357150     0.000785
SE        0.149259    0.001111    0.440483     0.000785
ZN        0.223333    0.038148    0.418333     0.000785
ZN        0.260370    0.001111    0.501667     0.000785
SE        0.223333    0.038148    0.357150     0.000785
SE        0.260370    0.001111    0.440483     0.000785
ZN        0.334444    0.038148    0.418333     0.000785
SE        0.334444    0.038148    0.357150     0.000785
SE        0.371481    0.001111    0.440483     0.000785
ZN        0.445555    0.038148    0.418333     0.000785
SE        0.445555    0.038148    0.357150     0.000785
ZN        0.001111    0.149259    0.418333     0.000785
ZN        0.038148    0.112222    0.501667     0.000785
SE        0.001111    0.149259    0.357150     0.000785
SE        0.038148    0.112222    0.440483     0.000785
ZN        0.112222    0.149259    0.418333     0.000785
ZN        0.149259    0.112222    0.501667     0.000785
SE        0.112222    0.149259    0.357150     0.000785
SE        0.149259    0.112222    0.440483     0.000785
ZN        0.223333    0.149259    0.418333     0.000785
ZN        0.260370    0.112222    0.501667     0.000785
SE        0.223333    0.149259    0.357150     0.000785
SE        0.260370    0.112222    0.440483     0.000785
ZN        0.334444    0.149259    0.418333     0.000785
ZN        0.371481    0.112222    0.501667     0.000785
SE        0.334444    0.149259    0.357150     0.000785
SE        0.371481    0.112222    0.440483     0.000785
ZN        0.445555    0.149259    0.418333     0.000785
ZN        0.482592    0.112222    0.501667     0.000785
SE        0.445555    0.149259    0.357150     0.000785
SE        0.482592    0.112222    0.440483     0.000785
ZN        0.556667    0.149259    0.418333     0.000785
SE        0.556667    0.149259    0.357150     0.000785
ZN        0.001111    0.260370    0.418333     0.000785
ZN        0.038148    0.223333    0.501667     0.000785
SE        0.001111    0.260370    0.357150     0.000785
SE        0.038148    0.223333    0.440483     0.000785
ZN        0.112222    0.260370    0.418333     0.000785
ZN        0.149259    0.223333    0.501667     0.000785
SE        0.112222    0.260370    0.357150     0.000785
SE        0.149259    0.223333    0.440483     0.000785
ZN        0.223333    0.260370    0.418333     0.000785
ZN        0.260370    0.223333    0.501667     0.000785
SE        0.223333    0.260370    0.357150     0.000785
SE        0.260370    0.223333    0.440483     0.000785
ZN        0.334444    0.260370    0.418333     0.000785
ZN        0.371481    0.223333    0.501667     0.000785
SE        0.334444    0.260370    0.357150     0.000785
SE        0.371481    0.223333    0.440483     0.000785
ZN        0.445555    0.260370    0.418333     0.000785
ZN        0.482592    0.223333    0.501667     0.000785
SE        0.445555    0.260370    0.357150     0.000785
SE        0.482592    0.223333    0.440483     0.000785
ZN        0.556667    0.260370    0.418333     0.000785
ZN        0.593704    0.223333    0.501667     0.000785
SE        0.556667    0.260370    0.357150     0.000785
SE        0.593704    0.223333    0.440483     0.000785
ZN        0.667778    0.260370    0.418333     0.000785
SE        0.667778    0.260370    0.357150     0.000785
ZN        0.001111    0.371481    0.418333     0.000785
ZN        0.038148    0.334444    0.501667     0.000785
SE        0.001111    0.371481    0.357150     0.000785
SE        0.038148    0.334444    0.440483     0.000785
ZN        0.112222    0.371481    0.418333     0.000785
ZN        0.149259    0.334444    0.501667     0.000785
SE        0.112222    0.371481    0.357150     0.000785
SE        0.149259    0.334444    0.440483     0.000785
ZN        0.223333    0.371481    0.418333     0.000785
ZN        0.260370    0.334444    0.501667     0.000785
SE        0.223333    0.371481    0.357150     0.000785
SE        0.260370    0.334444    0.440483     0.000785
ZN        0.334444    0.371481    0.418333     0.000785
ZN        0.371481    0.334444    0.501667     0.000785
SE        0.334444    0.371481    0.357150     0.000785
SE        0.371481    0.334444    0.440483     0.000785
ZN        0.445555    0.371481    0.418333     0.000785
ZN        0.482592    0.334444    0.501667     0.000785
SE        0.445555    0.371481    0.357150     0.000785
SE        0.482592    0.334444    0.440483     0.000785
ZN        0.556667    0.371481    0.418333     0.000785
ZN        0.593704    0.334444    0.501667     0.000785
SE        0.556667    0.371481    0.357150     0.000785
SE        0.593704    0.334444    0.440483     0.000785
ZN        0.667778    0.371481    0.418333     0.000785
ZN        0.704815    0.334444    0.501667     0.000785
SE        0.667778    0.371481    0.357150     0.000785
SE        0.704815    0.334444    0.440483     0.000785
ZN        0.778889    0.371481    0.418333     0.000785
SE        0.778889    0.371481    0.357150     0.000785
SE        0.038148    0.445556    0.440483     0.000785
ZN        0.112222    0.482593    0.418333     0.000785
ZN        0.149259    0.445556    0.501667     0.000785
SE        0.112222    0.482593    0.357150     0.000785
SE        0.149259    0.445556    0.440483     0.000785
ZN        0.223333    0.482593    0.418333     0.000785
ZN        0.260370    0.445556    0.501667     0.000785
SE        0.223333    0.482593    0.357150     0.000785
SE        0.260370    0.445556    0.440483     0.000785
ZN        0.334444    0.482593    0.418333     0.000785
ZN        0.371481    0.445556    0.501667     0.000785
SE        0.334444    0.482593    0.357150     0.000785
SE        0.371481    0.445556    0.440483     0.000785
ZN        0.445555    0.482593    0.418333     0.000785
ZN        0.482592    0.445556    0.501667     0.000785
SE        0.445555    0.482593    0.357150     0.000785
SE        0.482592    0.445556    0.440483     0.000785
ZN        0.556667    0.482593    0.418333     0.000785
ZN        0.593704    0.445556    0.501667     0.000785
SE        0.556667    0.482593    0.357150     0.000785
SE        0.593704    0.445556    0.440483     0.000785
ZN        0.667778    0.482593    0.418333     0.000785
ZN        0.704815    0.445556    0.501667     0.000785
SE        0.667778    0.482593    0.357150     0.000785
SE        0.704815    0.445556    0.440483     0.000785
ZN        0.778889    0.482593    0.418333     0.000785
SE        0.778889    0.482593    0.357150     0.000785
SE        0.815926    0.445556    0.440483     0.000785
ZN        0.149259    0.556667    0.501667     0.000785
SE        0.149259    0.556667    0.440483     0.000785
ZN        0.223333    0.593704    0.418333     0.000785
ZN        0.260370    0.556667    0.501667     0.000785
SE        0.223333    0.593704    0.357150     0.000785
SE        0.260370    0.556667    0.440483     0.000785
ZN        0.334444    0.593704    0.418333     0.000785
ZN        0.371481    0.556667    0.501667     0.000785
SE        0.334444    0.593704    0.357150     0.000785
SE        0.371481    0.556667    0.440483     0.000785
ZN        0.445555    0.593704    0.418333     0.000785
ZN        0.482592    0.556667    0.501667     0.000785
SE        0.445555    0.593704    0.357150     0.000785
SE        0.482592    0.556667    0.440483     0.000785
ZN        0.556667    0.593704    0.418333     0.000785
ZN        0.593704    0.556667    0.501667     0.000785
SE        0.556667    0.593704    0.357150     0.000785
SE        0.593704    0.556667    0.440483     0.000785
ZN        0.667778    0.593704    0.418333     0.000785
ZN        0.704815    0.556667    0.501667     0.000785
SE        0.667778    0.593704    0.357150     0.000785
SE        0.704815    0.556667    0.440483     0.000785
ZN        0.778889    0.593704    0.418333     0.000785
ZN        0.815926    0.556667    0.501667     0.000785
SE        0.778889    0.593704    0.357150     0.000785
SE        0.815926    0.556667    0.440483     0.000785
ZN        0.260370    0.667778    0.501667     0.000785
SE        0.260370    0.667778    0.440483     0.000785
ZN        0.334444    0.704815    0.418333     0.000785
ZN        0.371481    0.667778    0.501667     0.000785
SE        0.334444    0.704815    0.357150     0.000785
SE        0.371481    0.667778    0.440483     0.000785
ZN        0.445555    0.704815    0.418333     0.000785
ZN        0.482592    0.667778    0.501667     0.000785
SE        0.445555    0.704815    0.357150     0.000785
SE        0.482592    0.667778    0.440483     0.000785
ZN        0.556667    0.704815    0.418333     0.000785
ZN        0.593704    0.667778    0.501667     0.000785
SE        0.556667    0.704815    0.357150     0.000785
SE        0.593704    0.667778    0.440483     0.000785
ZN        0.667778    0.704815    0.418333     0.000785
ZN        0.704815    0.667778    0.501667     0.000785
SE        0.667778    0.704815    0.357150     0.000785
SE        0.704815    0.667778    0.440483     0.000785
ZN        0.778889    0.704815    0.418333     0.000785
ZN        0.815926    0.667778    0.501667     0.000785
SE        0.778889    0.704815    0.357150     0.000785
SE        0.815926    0.667778    0.440483     0.000785
SE        0.371481    0.778889    0.440483     0.000785
ZN        0.445555    0.815926    0.418333     0.000785
ZN        0.482592    0.778889    0.501667     0.000785
SE        0.445555    0.815926    0.357150     0.000785
SE        0.482592    0.778889    0.440483     0.000785
ZN        0.556667    0.815926    0.418333     0.000785
ZN        0.593704    0.778889    0.501667     0.000785
SE        0.556667    0.815926    0.357150     0.000785
SE        0.593704    0.778889    0.440483     0.000785
ZN        0.667778    0.815926    0.418333     0.000785
ZN        0.704815    0.778889    0.501667     0.000785
SE        0.667778    0.815926    0.357150     0.000785
SE        0.704815    0.778889    0.440483     0.000785
ZN        0.778889    0.815926    0.418333     0.000785
SE        0.778889    0.815926    0.357150     0.000785
SE        0.815926    0.778889    0.440483     0.000785
SE        0.112222    0.038148    0.523817     0.000785
ZN        0.223333    0.038148    0.585000     0.000785
SE        0.223333    0.038148    0.523817     0.000785
SE        0.334444    0.038148    0.523817     0.000785
SE        0.001111    0.149259    0.523817     0.000785
ZN        0.112222    0.149259    0.585000     0.000785
SE        0.112222    0.149259    0.523817     0.000785
SE        0.149259    0.112222    0.607150     0.000785
ZN        0.223333    0.149259    0.585000     0.000785
SE        0.223333    0.149259    0.523817     0.000785
SE        0.260370    0.112222    0.607150     0.000785
ZN        0.334444    0.149259    0.585000     0.000785
SE        0.334444    0.149259    0.523817     0.000785
SE        0.371481    0.112222    0.607150     0.000785
ZN        0.445555    0.149259    0.585000     0.000785
SE        0.445555    0.149259    0.523817     0.000785
SE        0.556667    0.149259    0.523817     0.000785
SE        0.001111    0.260370    0.523817     0.000785
ZN        0.112222    0.260370    0.585000     0.000785
ZN        0.149259    0.223333    0.668333     0.000785
SE        0.112222    0.260370    0.523817     0.000785
SE        0.149259    0.223333    0.607150     0.000785
ZN        0.223333    0.260370    0.585000     0.000785
ZN        0.260370    0.223333    0.668333     0.000785
SE        0.223333    0.260370    0.523817     0.000785
SE        0.260370    0.223333    0.607150     0.000785
ZN        0.334444    0.260370    0.585000     0.000785
ZN        0.371481    0.223333    0.668333     0.000785
SE        0.334444    0.260370    0.523817     0.000785
SE        0.371481    0.223333    0.607150     0.000785
ZN        0.445555    0.260370    0.585000     0.000785
ZN        0.482592    0.223333    0.668333     0.000785
SE        0.445555    0.260370    0.523817     0.000785
SE        0.482592    0.223333    0.607150     0.000785
ZN        0.556667    0.260370    0.585000     0.000785
SE        0.556667    0.260370    0.523817     0.000785
SE        0.667778    0.260370    0.523817     0.000785
ZN        0.112222    0.371481    0.585000     0.000785
ZN        0.149259    0.334444    0.668333     0.000785
SE        0.112222    0.371481    0.523817     0.000785
SE        0.149259    0.334444    0.607150     0.000785
ZN        0.223333    0.371481    0.585000     0.000785
ZN        0.260370    0.334444    0.668333     0.000785
SE        0.223333    0.371481    0.523817     0.000785
SE        0.260370    0.334444    0.607150     0.000785
ZN        0.334444    0.371481    0.585000     0.000785
ZN        0.371481    0.334444    0.668333     0.000785
SE        0.334444    0.371481    0.523817     0.000785
SE        0.371481    0.334444    0.607150     0.000785
ZN        0.445555    0.371481    0.585000     0.000785
ZN        0.482592    0.334444    0.668333     0.000785
SE        0.445555    0.371481    0.523817     0.000785
SE        0.482592    0.334444    0.607150     0.000785
ZN        0.556667    0.371481    0.585000     0.000785
ZN        0.593704    0.334444    0.668333     0.000785
SE        0.556667    0.371481    0.523817     0.000785
SE        0.593704    0.334444    0.607150     0.000785
ZN        0.667778    0.371481    0.585000     0.000785
SE        0.667778    0.371481    0.523817     0.000785
SE        0.112222    0.482593    0.523817     0.000785
SE        0.149259    0.445556    0.607150     0.000785
ZN        0.223333    0.482593    0.585000     0.000785
ZN        0.260370    0.445556    0.668333     0.000785
SE        0.223333    0.482593    0.523817     0.000785
SE        0.260370    0.445556    0.607150     0.000785
ZN        0.334444    0.482593    0.585000     0.000785
ZN        0.371481    0.445556    0.668333     0.000785
SE        0.334444    0.482593    0.523817     0.000785
SE        0.371481    0.445556    0.607150     0.000785
ZN        0.445555    0.482593    0.585000     0.000785
ZN        0.482592    0.445556    0.668333     0.000785
SE        0.445555    0.482593    0.523817     0.000785
SE        0.482592    0.445556    0.607150     0.000785
ZN        0.556667    0.482593    0.585000     0.000785
ZN        0.593704    0.445556    0.668333     0.000785
SE        0.556667    0.482593    0.523817     0.000785
SE        0.593704    0.445556    0.607150     0.000785
ZN        0.667778    0.482593    0.585000     0.000785
SE        0.667778    0.482593    0.523817     0.000785
SE        0.704815    0.445556    0.607150     0.000785
SE        0.778889    0.482593    0.523817     0.000785
ZN        0.223333    0.593704    0.585000     0.000785
SE        0.223333    0.593704    0.523817     0.000785
SE        0.260370    0.556667    0.607150     0.000785
ZN        0.334444    0.593704    0.585000     0.000785
ZN        0.371481    0.556667    0.668333     0.000785
SE        0.334444    0.593704    0.523817     0.000785
SE        0.371481    0.556667    0.607150     0.000785
ZN        0.445555    0.593704    0.585000     0.000785
ZN        0.482592    0.556667    0.668333     0.000785
SE        0.445555    0.593704    0.523817     0.000785
SE        0.482592    0.556667    0.607150     0.000785
ZN        0.556667    0.593704    0.585000     0.000785
ZN        0.593704    0.556667    0.668333     0.000785
SE        0.556667    0.593704    0.523817     0.000785
SE        0.593704    0.556667    0.607150     0.000785
ZN        0.667778    0.593704    0.585000     0.000785
SE        0.667778    0.593704    0.523817     0.000785
SE        0.704815    0.556667    0.607150     0.000785
ZN        0.778889    0.593704    0.585000     0.000785
SE        0.778889    0.593704    0.523817     0.000785
SE        0.334444    0.704815    0.523817     0.000785
SE        0.371481    0.667778    0.607150     0.000785
ZN        0.445555    0.704815    0.585000     0.000785
ZN        0.482592    0.667778    0.668333     0.000785
SE        0.445555    0.704815    0.523817     0.000785
SE        0.482592    0.667778    0.607150     0.000785
ZN        0.556667    0.704815    0.585000     0.000785
ZN        0.593704    0.667778    0.668333     0.000785
SE        0.556667    0.704815    0.523817     0.000785
SE        0.593704    0.667778    0.607150     0.000785
ZN        0.667778    0.704815    0.585000     0.000785
SE        0.667778    0.704815    0.523817     0.000785
SE        0.704815    0.667778    0.607150     0.000785
SE        0.778889    0.704815    0.523817     0.000785
SE        0.556667    0.815926    0.523817     0.000785
SE        0.667778    0.815926    0.523817     0.000785
SE        0.223333    0.260370    0.690483     0.000785
SE        0.334444    0.260370    0.690483     0.000785
SE        0.445555    0.260370    0.690483     0.000785
SE        0.223333    0.371481    0.690483     0.000785
SE        0.334444    0.371481    0.690483     0.000785
SE        0.445555    0.371481    0.690483     0.000785
SE        0.556667    0.371481    0.690483     0.000785
SE        0.334444    0.482593    0.690483     0.000785
SE        0.445555    0.482593    0.690483     0.000785
SE        0.556667    0.482593    0.690483     0.000785
SE        0.445555    0.593704    0.690483     0.000785
SE        0.556667    0.593704    0.690483     0.000785
