data_00001
_audit_creation_method   'DISCUS'

_cell_length_a        39.9700
_cell_length_b        39.9700
_cell_length_c        39.0060
_cell_angle_alpha     90.0000
_cell_angle_beta      90.0000
_cell_angle_gamma    120.0000

_symmetry_space_group_name_H-M   'P1'

loop_
_atom_site_label
_atom_site_fract_x
_atom_site_fract_y
_atom_site_fract_z
_atom_site_u_iso_or_equiv
ZN        0.233333    0.300000    0.000000     0.061980
ZN        0.333333    0.300000    0.000000     0.061980
ZN        0.433333    0.300000    0.000000     0.061980
ZN        0.333333    0.400000    0.000000     0.061980
ZN        0.433333    0.400000    0.000000     0.061980
ZN        0.433333    0.500000    0.000000     0.061980
ZN        0.133333    0.000000    0.166667     0.061980
ZN        0.233333    0.000000    0.166667     0.061980
ZN        0.033333    0.100000    0.166667     0.061980
ZN        0.100000    0.133333    0.083333     0.061980
ZN        0.133333    0.100000    0.166667     0.061980
SE        0.133333    0.100000    0.105483     0.061980
ZN        0.200000    0.133333    0.083333     0.061980
ZN        0.233333    0.100000    0.166667     0.061980
SE        0.233333    0.100000    0.105483     0.061980
ZN        0.300000    0.133333    0.083333     0.061980
ZN        0.333333    0.100000    0.166667     0.061980
SE        0.333333    0.100000    0.105483     0.061980
ZN        0.400000    0.133333    0.083333     0.061980
ZN        0.433333    0.100000    0.166667     0.061980
ZN        0.033333    0.200000    0.166667     0.061980
ZN        0.100000    0.233333    0.083333     0.061980
ZN        0.133333    0.200000    0.166667     0.061980
SE        0.133333    0.200000    0.105483     0.061980
ZN        0.200000    0.233333    0.083333     0.061980
ZN        0.233333    0.200000    0.166667     0.061980
SE        0.200000    0.233333    0.022150     0.061980
SE        0.233333    0.200000    0.105483     0.061980
ZN        0.300000    0.233333    0.083333     0.061980
ZN        0.333333    0.200000    0.166667     0.061980
SE        0.300000    0.233333    0.022150     0.061980
SE        0.333333    0.200000    0.105483     0.061980
ZN        0.400000    0.233333    0.083333     0.061980
ZN        0.433333    0.200000    0.166667     0.061980
SE        0.400000    0.233333    0.022150     0.061980
SE        0.433333    0.200000    0.105483     0.061980
ZN        0.500000    0.233333    0.083333     0.061980
ZN        0.533333    0.200000    0.166667     0.061980
ZN        0.033333    0.300000    0.166667     0.061980
ZN        0.100000    0.333333    0.083333     0.061980
ZN        0.133333    0.300000    0.166667     0.061980
SE        0.133333    0.300000    0.105483     0.061980
ZN        0.200000    0.333333    0.083333     0.061980
ZN        0.233333    0.300000    0.166667     0.061980
SE        0.200000    0.333333    0.022150     0.061980
SE        0.233333    0.300000    0.105483     0.061980
ZN        0.300000    0.333333    0.083333     0.061980
ZN        0.333333    0.300000    0.166667     0.061980
SE        0.300000    0.333333    0.022150     0.061980
SE        0.333333    0.300000    0.105483     0.061980
ZN        0.400000    0.333333    0.083333     0.061980
ZN        0.433333    0.300000    0.166667     0.061980
SE        0.400000    0.333333    0.022150     0.061980
SE        0.433333    0.300000    0.105483     0.061980
ZN        0.500000    0.333333    0.083333     0.061980
ZN        0.533333    0.300000    0.166667     0.061980
SE        0.500000    0.333333    0.022150     0.061980
SE        0.533333    0.300000    0.105483     0.061980
ZN        0.600000    0.333333    0.083333     0.061980
ZN        0.633333    0.300000    0.166667     0.061980
ZN        0.133333    0.400000    0.166667     0.061980
SE        0.133333    0.400000    0.105483     0.061980
ZN        0.200000    0.433333    0.083333     0.061980
ZN        0.233333    0.400000    0.166667     0.061980
SE        0.233333    0.400000    0.105483     0.061980
ZN        0.300000    0.433333    0.083333     0.061980
ZN        0.333333    0.400000    0.166667     0.061980
SE        0.300000    0.433333    0.022150     0.061980
SE        0.333333    0.400000    0.105483     0.061980
ZN        0.400000    0.433333    0.083333     0.061980
ZN        0.433333    0.400000    0.166667     0.061980
SE        0.400000    0.433333    0.022150     0.061980
SE        0.433333    0.400000    0.105483     0.061980
ZN        0.500000    0.433333    0.083333     0.061980
ZN        0.533333    0.400000    0.166667     0.061980
SE        0.500000    0.433333    0.022150     0.061980
SE        0.533333    0.400000    0.105483     0.061980
ZN        0.600000    0.433333    0.083333     0.061980
ZN        0.633333    0.400000    0.166667     0.061980
SE        0.633333    0.400000    0.105483     0.061980
ZN        0.133333    0.500000    0.166667     0.061980
ZN        0.233333    0.500000    0.166667     0.061980
SE        0.233333    0.500000    0.105483     0.061980
ZN        0.300000    0.533333    0.083333     0.061980
ZN        0.333333    0.500000    0.166667     0.061980
SE        0.333333    0.500000    0.105483     0.061980
ZN        0.400000    0.533333    0.083333     0.061980
ZN        0.433333    0.500000    0.166667     0.061980
SE        0.400000    0.533333    0.022150     0.061980
SE        0.433333    0.500000    0.105483     0.061980
ZN        0.500000    0.533333    0.083333     0.061980
ZN        0.533333    0.500000    0.166667     0.061980
SE        0.500000    0.533333    0.022150     0.061980
SE        0.533333    0.500000    0.105483     0.061980
ZN        0.600000    0.533333    0.083333     0.061980
ZN        0.633333    0.500000    0.166667     0.061980
SE        0.633333    0.500000    0.105483     0.061980
ZN        0.733333    0.500000    0.166667     0.061980
ZN        0.233333    0.600000    0.166667     0.061980
ZN        0.333333    0.600000    0.166667     0.061980
SE        0.333333    0.600000    0.105483     0.061980
ZN        0.400000    0.633333    0.083333     0.061980
ZN        0.433333    0.600000    0.166667     0.061980
SE        0.433333    0.600000    0.105483     0.061980
ZN        0.500000    0.633333    0.083333     0.061980
ZN        0.533333    0.600000    0.166667     0.061980
SE        0.533333    0.600000    0.105483     0.061980
ZN        0.600000    0.633333    0.083333     0.061980
ZN        0.633333    0.600000    0.166667     0.061980
SE        0.633333    0.600000    0.105483     0.061980
ZN        0.733333    0.600000    0.166667     0.061980
ZN        0.433333    0.700000    0.166667     0.061980
ZN        0.533333    0.700000    0.166667     0.061980
ZN        0.633333    0.700000    0.166667     0.061980
ZN        0.000000    0.033333    0.250000     0.061980
ZN        0.033333    0.000000    0.333333     0.061980
SE        0.033333    0.000000    0.272150     0.061980
ZN        0.100000    0.033333    0.250000     0.061980
ZN        0.133333    0.000000    0.333333     0.061980
SE        0.100000    0.033333    0.188817     0.061980
SE        0.133333    0.000000    0.272150     0.061980
ZN        0.200000    0.033333    0.250000     0.061980
ZN        0.233333    0.000000    0.333333     0.061980
SE        0.200000    0.033333    0.188817     0.061980
SE        0.233333    0.000000    0.272150     0.061980
ZN        0.300000    0.033333    0.250000     0.061980
ZN        0.333333    0.000000    0.333333     0.061980
SE        0.300000    0.033333    0.188817     0.061980
SE        0.333333    0.000000    0.272150     0.061980
ZN        0.400000    0.033333    0.250000     0.061980
ZN        0.000000    0.133333    0.250000     0.061980
ZN        0.033333    0.100000    0.333333     0.061980
SE        0.000000    0.133333    0.188817     0.061980
SE        0.033333    0.100000    0.272150     0.061980
ZN        0.100000    0.133333    0.250000     0.061980
ZN        0.133333    0.100000    0.333333     0.061980
SE        0.100000    0.133333    0.188817     0.061980
SE        0.133333    0.100000    0.272150     0.061980
ZN        0.200000    0.133333    0.250000     0.061980
ZN        0.233333    0.100000    0.333333     0.061980
SE        0.200000    0.133333    0.188817     0.061980
SE        0.233333    0.100000    0.272150     0.061980
ZN        0.300000    0.133333    0.250000     0.061980
ZN        0.333333    0.100000    0.333333     0.061980
SE        0.300000    0.133333    0.188817     0.061980
SE        0.333333    0.100000    0.272150     0.061980
ZN        0.400000    0.133333    0.250000     0.061980
ZN        0.433333    0.100000    0.333333     0.061980
SE        0.400000    0.133333    0.188817     0.061980
SE        0.433333    0.100000    0.272150     0.061980
ZN        0.500000    0.133333    0.250000     0.061980
SE        0.500000    0.133333    0.188817     0.061980
ZN        0.000000    0.233333    0.250000     0.061980
ZN        0.033333    0.200000    0.333333     0.061980
SE        0.000000    0.233333    0.188817     0.061980
SE        0.033333    0.200000    0.272150     0.061980
ZN        0.100000    0.233333    0.250000     0.061980
ZN        0.133333    0.200000    0.333333     0.061980
SE        0.100000    0.233333    0.188817     0.061980
SE        0.133333    0.200000    0.272150     0.061980
ZN        0.200000    0.233333    0.250000     0.061980
ZN        0.233333    0.200000    0.333333     0.061980
SE        0.200000    0.233333    0.188817     0.061980
SE        0.233333    0.200000    0.272150     0.061980
ZN        0.300000    0.233333    0.250000     0.061980
ZN        0.333333    0.200000    0.333333     0.061980
SE        0.300000    0.233333    0.188817     0.061980
SE        0.333333    0.200000    0.272150     0.061980
ZN        0.400000    0.233333    0.250000     0.061980
ZN        0.433333    0.200000    0.333333     0.061980
SE        0.400000    0.233333    0.188817     0.061980
SE        0.433333    0.200000    0.272150     0.061980
ZN        0.500000    0.233333    0.250000     0.061980
ZN        0.533333    0.200000    0.333333     0.061980
SE        0.500000    0.233333    0.188817     0.061980
SE        0.533333    0.200000    0.272150     0.061980
ZN        0.600000    0.233333    0.250000     0.061980
SE        0.600000    0.233333    0.188817     0.061980
ZN        0.000000    0.333333    0.250000     0.061980
ZN        0.033333    0.300000    0.333333     0.061980
SE        0.033333    0.300000    0.272150     0.061980
ZN        0.100000    0.333333    0.250000     0.061980
ZN        0.133333    0.300000    0.333333     0.061980
SE        0.100000    0.333333    0.188817     0.061980
SE        0.133333    0.300000    0.272150     0.061980
ZN        0.200000    0.333333    0.250000     0.061980
ZN        0.233333    0.300000    0.333333     0.061980
SE        0.200000    0.333333    0.188817     0.061980
SE        0.233333    0.300000    0.272150     0.061980
ZN        0.300000    0.333333    0.250000     0.061980
ZN        0.333333    0.300000    0.333333     0.061980
SE        0.300000    0.333333    0.188817     0.061980
SE        0.333333    0.300000    0.272150     0.061980
ZN        0.400000    0.333333    0.250000     0.061980
ZN        0.433333    0.300000    0.333333     0.061980
SE        0.400000    0.333333    0.188817     0.061980
SE        0.433333    0.300000    0.272150     0.061980
ZN        0.500000    0.333333    0.250000     0.061980
ZN        0.533333    0.300000    0.333333     0.061980
SE        0.500000    0.333333    0.188817     0.061980
SE        0.533333    0.300000    0.272150     0.061980
ZN        0.600000    0.333333    0.250000     0.061980
ZN        0.633333    0.300000    0.333333     0.061980
SE        0.600000    0.333333    0.188817     0.061980
SE        0.633333    0.300000    0.272150     0.061980
ZN        0.700000    0.333333    0.250000     0.061980
ZN        0.033333    0.400000    0.333333     0.061980
SE        0.033333    0.400000    0.272150     0.061980
ZN        0.100000    0.433333    0.250000     0.061980
ZN        0.133333    0.400000    0.333333     0.061980
SE        0.100000    0.433333    0.188817     0.061980
SE        0.133333    0.400000    0.272150     0.061980
ZN        0.200000    0.433333    0.250000     0.061980
ZN        0.233333    0.400000    0.333333     0.061980
SE        0.200000    0.433333    0.188817     0.061980
SE        0.233333    0.400000    0.272150     0.061980
ZN        0.300000    0.433333    0.250000     0.061980
ZN        0.333333    0.400000    0.333333     0.061980
SE        0.300000    0.433333    0.188817     0.061980
SE        0.333333    0.400000    0.272150     0.061980
ZN        0.400000    0.433333    0.250000     0.061980
ZN        0.433333    0.400000    0.333333     0.061980
SE        0.400000    0.433333    0.188817     0.061980
SE        0.433333    0.400000    0.272150     0.061980
ZN        0.500000    0.433333    0.250000     0.061980
ZN        0.533333    0.400000    0.333333     0.061980
SE        0.500000    0.433333    0.188817     0.061980
SE        0.533333    0.400000    0.272150     0.061980
ZN        0.600000    0.433333    0.250000     0.061980
ZN        0.633333    0.400000    0.333333     0.061980
SE        0.600000    0.433333    0.188817     0.061980
SE        0.633333    0.400000    0.272150     0.061980
ZN        0.700000    0.433333    0.250000     0.061980
ZN        0.733333    0.400000    0.333333     0.061980
SE        0.700000    0.433333    0.188817     0.061980
SE        0.733333    0.400000    0.272150     0.061980
ZN        0.133333    0.500000    0.333333     0.061980
SE        0.133333    0.500000    0.272150     0.061980
ZN        0.200000    0.533333    0.250000     0.061980
ZN        0.233333    0.500000    0.333333     0.061980
SE        0.200000    0.533333    0.188817     0.061980
SE        0.233333    0.500000    0.272150     0.061980
ZN        0.300000    0.533333    0.250000     0.061980
ZN        0.333333    0.500000    0.333333     0.061980
SE        0.300000    0.533333    0.188817     0.061980
SE        0.333333    0.500000    0.272150     0.061980
ZN        0.400000    0.533333    0.250000     0.061980
ZN        0.433333    0.500000    0.333333     0.061980
SE        0.400000    0.533333    0.188817     0.061980
SE        0.433333    0.500000    0.272150     0.061980
ZN        0.500000    0.533333    0.250000     0.061980
ZN        0.533333    0.500000    0.333333     0.061980
SE        0.500000    0.533333    0.188817     0.061980
SE        0.533333    0.500000    0.272150     0.061980
ZN        0.600000    0.533333    0.250000     0.061980
ZN        0.633333    0.500000    0.333333     0.061980
SE        0.600000    0.533333    0.188817     0.061980
SE        0.633333    0.500000    0.272150     0.061980
ZN        0.700000    0.533333    0.250000     0.061980
ZN        0.733333    0.500000    0.333333     0.061980
SE        0.700000    0.533333    0.188817     0.061980
SE        0.733333    0.500000    0.272150     0.061980
ZN        0.233333    0.600000    0.333333     0.061980
SE        0.233333    0.600000    0.272150     0.061980
ZN        0.300000    0.633333    0.250000     0.061980
ZN        0.333333    0.600000    0.333333     0.061980
SE        0.300000    0.633333    0.188817     0.061980
SE        0.333333    0.600000    0.272150     0.061980
ZN        0.400000    0.633333    0.250000     0.061980
ZN        0.433333    0.600000    0.333333     0.061980
SE        0.400000    0.633333    0.188817     0.061980
SE        0.433333    0.600000    0.272150     0.061980
ZN        0.500000    0.633333    0.250000     0.061980
ZN        0.533333    0.600000    0.333333     0.061980
SE        0.500000    0.633333    0.188817     0.061980
SE        0.533333    0.600000    0.272150     0.061980
ZN        0.600000    0.633333    0.250000     0.061980
ZN        0.633333    0.600000    0.333333     0.061980
SE        0.600000    0.633333    0.188817     0.061980
SE        0.633333    0.600000    0.272150     0.061980
ZN        0.700000    0.633333    0.250000     0.061980
ZN        0.733333    0.600000    0.333333     0.061980
SE        0.700000    0.633333    0.188817     0.061980
SE        0.733333    0.600000    0.272150     0.061980
ZN        0.333333    0.700000    0.333333     0.061980
SE        0.333333    0.700000    0.272150     0.061980
ZN        0.400000    0.733333    0.250000     0.061980
ZN        0.433333    0.700000    0.333333     0.061980
SE        0.433333    0.700000    0.272150     0.061980
ZN        0.500000    0.733333    0.250000     0.061980
ZN        0.533333    0.700000    0.333333     0.061980
SE        0.500000    0.733333    0.188817     0.061980
SE        0.533333    0.700000    0.272150     0.061980
ZN        0.600000    0.733333    0.250000     0.061980
ZN        0.633333    0.700000    0.333333     0.061980
SE        0.600000    0.733333    0.188817     0.061980
SE        0.633333    0.700000    0.272150     0.061980
ZN        0.700000    0.733333    0.250000     0.061980
ZN        0.733333    0.700000    0.333333     0.061980
SE        0.733333    0.700000    0.272150     0.061980
ZN        0.000000    0.033333    0.416667     0.061980
SE        0.000000    0.033333    0.355483     0.061980
SE        0.033333    0.000000    0.438817     0.061980
ZN        0.100000    0.033333    0.416667     0.061980
ZN        0.133333    0.000000    0.500000     0.061980
SE        0.100000    0.033333    0.355483     0.061980
SE        0.133333    0.000000    0.438817     0.061980
ZN        0.200000    0.033333    0.416667     0.061980
ZN        0.233333    0.000000    0.500000     0.061980
SE        0.200000    0.033333    0.355483     0.061980
SE        0.233333    0.000000    0.438817     0.061980
ZN        0.300000    0.033333    0.416667     0.061980
SE        0.300000    0.033333    0.355483     0.061980
SE        0.333333    0.000000    0.438817     0.061980
ZN        0.400000    0.033333    0.416667     0.061980
SE        0.400000    0.033333    0.355483     0.061980
ZN        0.000000    0.133333    0.416667     0.061980
ZN        0.033333    0.100000    0.500000     0.061980
SE        0.000000    0.133333    0.355483     0.061980
SE        0.033333    0.100000    0.438817     0.061980
ZN        0.100000    0.133333    0.416667     0.061980
ZN        0.133333    0.100000    0.500000     0.061980
SE        0.100000    0.133333    0.355483     0.061980
SE        0.133333    0.100000    0.438817     0.061980
ZN        0.200000    0.133333    0.416667     0.061980
ZN        0.233333    0.100000    0.500000     0.061980
SE        0.200000    0.133333    0.355483     0.061980
SE        0.233333    0.100000    0.438817     0.061980
ZN        0.300000    0.133333    0.416667     0.061980
ZN        0.333333    0.100000    0.500000     0.061980
SE        0.300000    0.133333    0.355483     0.061980
SE        0.333333    0.100000    0.438817     0.061980
ZN        0.400000    0.133333    0.416667     0.061980
ZN        0.433333    0.100000    0.500000     0.061980
SE        0.400000    0.133333    0.355483     0.061980
SE        0.433333    0.100000    0.438817     0.061980
ZN        0.500000    0.133333    0.416667     0.061980
SE        0.500000    0.133333    0.355483     0.061980
ZN        0.000000    0.233333    0.416667     0.061980
ZN        0.033333    0.200000    0.500000     0.061980
SE        0.000000    0.233333    0.355483     0.061980
SE        0.033333    0.200000    0.438817     0.061980
ZN        0.100000    0.233333    0.416667     0.061980
ZN        0.133333    0.200000    0.500000     0.061980
SE        0.100000    0.233333    0.355483     0.061980
SE        0.133333    0.200000    0.438817     0.061980
ZN        0.200000    0.233333    0.416667     0.061980
ZN        0.233333    0.200000    0.500000     0.061980
SE        0.200000    0.233333    0.355483     0.061980
SE        0.233333    0.200000    0.438817     0.061980
ZN        0.300000    0.233333    0.416667     0.061980
ZN        0.333333    0.200000    0.500000     0.061980
SE        0.300000    0.233333    0.355483     0.061980
SE        0.333333    0.200000    0.438817     0.061980
ZN        0.400000    0.233333    0.416667     0.061980
ZN        0.433333    0.200000    0.500000     0.061980
SE        0.400000    0.233333    0.355483     0.061980
SE        0.433333    0.200000    0.438817     0.061980
ZN        0.500000    0.233333    0.416667     0.061980
ZN        0.533333    0.200000    0.500000     0.061980
SE        0.500000    0.233333    0.355483     0.061980
SE        0.533333    0.200000    0.438817     0.061980
ZN        0.600000    0.233333    0.416667     0.061980
SE        0.600000    0.233333    0.355483     0.061980
ZN        0.000000    0.333333    0.416667     0.061980
ZN        0.033333    0.300000    0.500000     0.061980
SE        0.000000    0.333333    0.355483     0.061980
SE        0.033333    0.300000    0.438817     0.061980
ZN        0.100000    0.333333    0.416667     0.061980
ZN        0.133333    0.300000    0.500000     0.061980
SE        0.100000    0.333333    0.355483     0.061980
SE        0.133333    0.300000    0.438817     0.061980
ZN        0.200000    0.333333    0.416667     0.061980
ZN        0.233333    0.300000    0.500000     0.061980
SE        0.200000    0.333333    0.355483     0.061980
SE        0.233333    0.300000    0.438817     0.061980
ZN        0.300000    0.333333    0.416667     0.061980
ZN        0.333333    0.300000    0.500000     0.061980
SE        0.300000    0.333333    0.355483     0.061980
SE        0.333333    0.300000    0.438817     0.061980
ZN        0.400000    0.333333    0.416667     0.061980
ZN        0.433333    0.300000    0.500000     0.061980
SE        0.400000    0.333333    0.355483     0.061980
SE        0.433333    0.300000    0.438817     0.061980
ZN        0.500000    0.333333    0.416667     0.061980
ZN        0.533333    0.300000    0.500000     0.061980
SE        0.500000    0.333333    0.355483     0.061980
SE        0.533333    0.300000    0.438817     0.061980
ZN        0.600000    0.333333    0.416667     0.061980
ZN        0.633333    0.300000    0.500000     0.061980
SE        0.600000    0.333333    0.355483     0.061980
SE        0.633333    0.300000    0.438817     0.061980
ZN        0.700000    0.333333    0.416667     0.061980
SE        0.700000    0.333333    0.355483     0.061980
SE        0.033333    0.400000    0.438817     0.061980
ZN        0.100000    0.433333    0.416667     0.061980
ZN        0.133333    0.400000    0.500000     0.061980
SE        0.100000    0.433333    0.355483     0.061980
SE        0.133333    0.400000    0.438817     0.061980
ZN        0.200000    0.433333    0.416667     0.061980
ZN        0.233333    0.400000    0.500000     0.061980
SE        0.200000    0.433333    0.355483     0.061980
SE        0.233333    0.400000    0.438817     0.061980
ZN        0.300000    0.433333    0.416667     0.061980
ZN        0.333333    0.400000    0.500000     0.061980
SE        0.300000    0.433333    0.355483     0.061980
SE        0.333333    0.400000    0.438817     0.061980
ZN        0.400000    0.433333    0.416667     0.061980
ZN        0.433333    0.400000    0.500000     0.061980
SE        0.400000    0.433333    0.355483     0.061980
SE        0.433333    0.400000    0.438817     0.061980
ZN        0.500000    0.433333    0.416667     0.061980
ZN        0.533333    0.400000    0.500000     0.061980
SE        0.500000    0.433333    0.355483     0.061980
SE        0.533333    0.400000    0.438817     0.061980
ZN        0.600000    0.433333    0.416667     0.061980
ZN        0.633333    0.400000    0.500000     0.061980
SE        0.600000    0.433333    0.355483     0.061980
SE        0.633333    0.400000    0.438817     0.061980
ZN        0.700000    0.433333    0.416667     0.061980
SE        0.700000    0.433333    0.355483     0.061980
SE        0.733333    0.400000    0.438817     0.061980
ZN        0.133333    0.500000    0.500000     0.061980
SE        0.133333    0.500000    0.438817     0.061980
ZN        0.200000    0.533333    0.416667     0.061980
ZN        0.233333    0.500000    0.500000     0.061980
SE        0.200000    0.533333    0.355483     0.061980
SE        0.233333    0.500000    0.438817     0.061980
ZN        0.300000    0.533333    0.416667     0.061980
ZN        0.333333    0.500000    0.500000     0.061980
SE        0.300000    0.533333    0.355483     0.061980
SE        0.333333    0.500000    0.438817     0.061980
ZN        0.400000    0.533333    0.416667     0.061980
ZN        0.433333    0.500000    0.500000     0.061980
SE        0.400000    0.533333    0.355483     0.061980
SE        0.433333    0.500000    0.438817     0.061980
ZN        0.500000    0.533333    0.416667     0.061980
ZN        0.533333    0.500000    0.500000     0.061980
SE        0.500000    0.533333    0.355483     0.061980
SE        0.533333    0.500000    0.438817     0.061980
ZN        0.600000    0.533333    0.416667     0.061980
ZN        0.633333    0.500000    0.500000     0.061980
SE        0.600000    0.533333    0.355483     0.061980
SE        0.633333    0.500000    0.438817     0.061980
ZN        0.700000    0.533333    0.416667     0.061980
ZN        0.733333    0.500000    0.500000     0.061980
SE        0.700000    0.533333    0.355483     0.061980
SE        0.733333    0.500000    0.438817     0.061980
ZN        0.233333    0.600000    0.500000     0.061980
SE        0.233333    0.600000    0.438817     0.061980
ZN        0.300000    0.633333    0.416667     0.061980
ZN        0.333333    0.600000    0.500000     0.061980
SE        0.300000    0.633333    0.355483     0.061980
SE        0.333333    0.600000    0.438817     0.061980
ZN        0.400000    0.633333    0.416667     0.061980
ZN        0.433333    0.600000    0.500000     0.061980
SE        0.400000    0.633333    0.355483     0.061980
SE        0.433333    0.600000    0.438817     0.061980
ZN        0.500000    0.633333    0.416667     0.061980
ZN        0.533333    0.600000    0.500000     0.061980
SE        0.500000    0.633333    0.355483     0.061980
SE        0.533333    0.600000    0.438817     0.061980
ZN        0.600000    0.633333    0.416667     0.061980
ZN        0.633333    0.600000    0.500000     0.061980
SE        0.600000    0.633333    0.355483     0.061980
SE        0.633333    0.600000    0.438817     0.061980
ZN        0.700000    0.633333    0.416667     0.061980
ZN        0.733333    0.600000    0.500000     0.061980
SE        0.700000    0.633333    0.355483     0.061980
SE        0.733333    0.600000    0.438817     0.061980
SE        0.333333    0.700000    0.438817     0.061980
ZN        0.400000    0.733333    0.416667     0.061980
ZN        0.433333    0.700000    0.500000     0.061980
SE        0.400000    0.733333    0.355483     0.061980
SE        0.433333    0.700000    0.438817     0.061980
ZN        0.500000    0.733333    0.416667     0.061980
ZN        0.533333    0.700000    0.500000     0.061980
SE        0.500000    0.733333    0.355483     0.061980
SE        0.533333    0.700000    0.438817     0.061980
ZN        0.600000    0.733333    0.416667     0.061980
ZN        0.633333    0.700000    0.500000     0.061980
SE        0.600000    0.733333    0.355483     0.061980
SE        0.633333    0.700000    0.438817     0.061980
ZN        0.700000    0.733333    0.416667     0.061980
SE        0.700000    0.733333    0.355483     0.061980
SE        0.733333    0.700000    0.438817     0.061980
SE        0.100000    0.033333    0.522150     0.061980
ZN        0.200000    0.033333    0.583333     0.061980
SE        0.200000    0.033333    0.522150     0.061980
SE        0.300000    0.033333    0.522150     0.061980
SE        0.000000    0.133333    0.522150     0.061980
ZN        0.100000    0.133333    0.583333     0.061980
SE        0.100000    0.133333    0.522150     0.061980
SE        0.133333    0.100000    0.605483     0.061980
ZN        0.200000    0.133333    0.583333     0.061980
SE        0.200000    0.133333    0.522150     0.061980
SE        0.233333    0.100000    0.605483     0.061980
ZN        0.300000    0.133333    0.583333     0.061980
SE        0.300000    0.133333    0.522150     0.061980
SE        0.333333    0.100000    0.605483     0.061980
ZN        0.400000    0.133333    0.583333     0.061980
SE        0.400000    0.133333    0.522150     0.061980
SE        0.500000    0.133333    0.522150     0.061980
SE        0.000000    0.233333    0.522150     0.061980
ZN        0.100000    0.233333    0.583333     0.061980
ZN        0.133333    0.200000    0.666667     0.061980
SE        0.100000    0.233333    0.522150     0.061980
SE        0.133333    0.200000    0.605483     0.061980
ZN        0.200000    0.233333    0.583333     0.061980
ZN        0.233333    0.200000    0.666667     0.061980
SE        0.200000    0.233333    0.522150     0.061980
SE        0.233333    0.200000    0.605483     0.061980
ZN        0.300000    0.233333    0.583333     0.061980
ZN        0.333333    0.200000    0.666667     0.061980
SE        0.300000    0.233333    0.522150     0.061980
SE        0.333333    0.200000    0.605483     0.061980
ZN        0.400000    0.233333    0.583333     0.061980
ZN        0.433333    0.200000    0.666667     0.061980
SE        0.400000    0.233333    0.522150     0.061980
SE        0.433333    0.200000    0.605483     0.061980
ZN        0.500000    0.233333    0.583333     0.061980
SE        0.500000    0.233333    0.522150     0.061980
SE        0.600000    0.233333    0.522150     0.061980
ZN        0.100000    0.333333    0.583333     0.061980
ZN        0.133333    0.300000    0.666667     0.061980
SE        0.100000    0.333333    0.522150     0.061980
SE        0.133333    0.300000    0.605483     0.061980
ZN        0.200000    0.333333    0.583333     0.061980
ZN        0.233333    0.300000    0.666667     0.061980
SE        0.200000    0.333333    0.522150     0.061980
SE        0.233333    0.300000    0.605483     0.061980
ZN        0.300000    0.333333    0.583333     0.061980
ZN        0.333333    0.300000    0.666667     0.061980
SE        0.300000    0.333333    0.522150     0.061980
SE        0.333333    0.300000    0.605483     0.061980
ZN        0.400000    0.333333    0.583333     0.061980
ZN        0.433333    0.300000    0.666667     0.061980
SE        0.400000    0.333333    0.522150     0.061980
SE        0.433333    0.300000    0.605483     0.061980
ZN        0.500000    0.333333    0.583333     0.061980
ZN        0.533333    0.300000    0.666667     0.061980
SE        0.500000    0.333333    0.522150     0.061980
SE        0.533333    0.300000    0.605483     0.061980
ZN        0.600000    0.333333    0.583333     0.061980
SE        0.600000    0.333333    0.522150     0.061980
SE        0.100000    0.433333    0.522150     0.061980
SE        0.133333    0.400000    0.605483     0.061980
ZN        0.200000    0.433333    0.583333     0.061980
ZN        0.233333    0.400000    0.666667     0.061980
SE        0.200000    0.433333    0.522150     0.061980
SE        0.233333    0.400000    0.605483     0.061980
ZN        0.300000    0.433333    0.583333     0.061980
ZN        0.333333    0.400000    0.666667     0.061980
SE        0.300000    0.433333    0.522150     0.061980
SE        0.333333    0.400000    0.605483     0.061980
ZN        0.400000    0.433333    0.583333     0.061980
ZN        0.433333    0.400000    0.666667     0.061980
SE        0.400000    0.433333    0.522150     0.061980
SE        0.433333    0.400000    0.605483     0.061980
ZN        0.500000    0.433333    0.583333     0.061980
ZN        0.533333    0.400000    0.666667     0.061980
SE        0.500000    0.433333    0.522150     0.061980
SE        0.533333    0.400000    0.605483     0.061980
ZN        0.600000    0.433333    0.583333     0.061980
SE        0.600000    0.433333    0.522150     0.061980
SE        0.633333    0.400000    0.605483     0.061980
SE        0.700000    0.433333    0.522150     0.061980
ZN        0.200000    0.533333    0.583333     0.061980
SE        0.200000    0.533333    0.522150     0.061980
SE        0.233333    0.500000    0.605483     0.061980
ZN        0.300000    0.533333    0.583333     0.061980
ZN        0.333333    0.500000    0.666667     0.061980
SE        0.300000    0.533333    0.522150     0.061980
SE        0.333333    0.500000    0.605483     0.061980
ZN        0.400000    0.533333    0.583333     0.061980
ZN        0.433333    0.500000    0.666667     0.061980
SE        0.400000    0.533333    0.522150     0.061980
SE        0.433333    0.500000    0.605483     0.061980
ZN        0.500000    0.533333    0.583333     0.061980
ZN        0.533333    0.500000    0.666667     0.061980
SE        0.500000    0.533333    0.522150     0.061980
SE        0.533333    0.500000    0.605483     0.061980
ZN        0.600000    0.533333    0.583333     0.061980
SE        0.600000    0.533333    0.522150     0.061980
SE        0.633333    0.500000    0.605483     0.061980
ZN        0.700000    0.533333    0.583333     0.061980
SE        0.700000    0.533333    0.522150     0.061980
SE        0.300000    0.633333    0.522150     0.061980
SE        0.333333    0.600000    0.605483     0.061980
ZN        0.400000    0.633333    0.583333     0.061980
ZN        0.433333    0.600000    0.666667     0.061980
SE        0.400000    0.633333    0.522150     0.061980
SE        0.433333    0.600000    0.605483     0.061980
ZN        0.500000    0.633333    0.583333     0.061980
ZN        0.533333    0.600000    0.666667     0.061980
SE        0.500000    0.633333    0.522150     0.061980
SE        0.533333    0.600000    0.605483     0.061980
ZN        0.600000    0.633333    0.583333     0.061980
SE        0.600000    0.633333    0.522150     0.061980
SE        0.633333    0.600000    0.605483     0.061980
SE        0.700000    0.633333    0.522150     0.061980
SE        0.500000    0.733333    0.522150     0.061980
SE        0.600000    0.733333    0.522150     0.061980
SE        0.200000    0.233333    0.688817     0.061980
SE        0.300000    0.233333    0.688817     0.061980
SE        0.400000    0.233333    0.688817     0.061980
SE        0.200000    0.333333    0.688817     0.061980
SE        0.300000    0.333333    0.688817     0.061980
SE        0.400000    0.333333    0.688817     0.061980
SE        0.500000    0.333333    0.688817     0.061980
SE        0.300000    0.433333    0.688817     0.061980
SE        0.400000    0.433333    0.688817     0.061980
SE        0.500000    0.433333    0.688817     0.061980
SE        0.400000    0.533333    0.688817     0.061980
SE        0.500000    0.533333    0.688817     0.061980
